case13659pegase_SE.m
function mpc = case13659pegase_SE
%CASE13659PEGASE_SE

%% MATPOWER Case Format : Version 2
mpc.version = '2';

%%-----  Power Flow Data  -----%%
%% system MVA base
mpc.baseMVA = 100;

%% bus data
%	bus_i	type	Pd	Qd	Gs	Bs	area	Vm	Va	baseKV	zone	Vmax	Vmin
mpc.bus = [
	1	3	0	0	0	0	0	1.031695	0	20	6	1.1	0.9;
	2	1	72.68	45	0	6.61	0	1.00250092	-11.2809612	150	9	1.1	0.9;
	3	1	378.4	98.5	0	16.61	0	0.991896481	-10.278601	220	6	1.1	0.9;
	4	1	134	19.1	0	0.08	0	1.00510605	9.42883882	154	1	1.1	0.9;
	5	1	151	48.8	0	4.69	0	0.99065501	5.44628237	220	5	1.1	0.9;
	6	1	171.41	23.4	0	2.1	0	1.00445873	21.1037196	220	5	1.1	0.9;
	7	1	45.95	14	0	13.34	0	0.979996386	-22.443429	220	6	1.1	0.9;
	8	1	343.4	53.1	0.70508	36.832433	0	1.02452575	-14.9955801	380	6	1.1	0.9;
	9	1	-0	-0	0	75.076713	0	0.995376879	12.2123399	380	5	1.1	0.9;
	10	1	31.03	10.3	0	0.65	0	0.935542915	-14.4716824	110	21	1.1	0.9;
	11	1	0	-0	0	3.41	0	1.03851426	0.501044124	154	1	1.1	0.9;
	12	2	0	0	0	0	0	1.004054	96.9410425	20	3	1.1	0.9;
	13	1	14.3	2	0	1.91	0	1.04625609	18.2440162	154	1	1.1	0.9;
	14	1	134	24.7	0	12.44	0	1.02915705	2.93770352	220	5	1.1	0.9;
	15	1	0	0	0	0	0	0.967333505	-11.9231445	150	9	1.1	0.9;
	16	1	-6.11	2	0	0.47	0	1.04840021	-7.09117893	150	9	1.1	0.9;
	17	1	-22.74	-8.32	0	6.5	0	1.01080672	-21.5446795	220	6	1.1	0.9;
	18	2	0	0	0	0	0	1.043087	9.90486386	20	14	1.1	0.9;
	19	1	59.67	26.7	0	12.84	0	1.02981792	-22.3912589	220	4	1.1	0.9;
	20	1	30.6	4.3	0	5.15	0	0.995807997	29.1425812	154	1	1.1	0.9;
	21	1	0	-0	0.234457	-0.195381	0	1.0244618	-14.1314702	380	6	1.1	0.9;
	22	1	67.67	12.1	0	2.18	0	1.012623	33.9843931	220	3	1.1	0.9;
	23	1	0	0	0.295874	20.603438	0	1.02325245	45.4788382	380	3	1.1	0.9;
	24	1	25.33	7.5	0	2.39	0	0.977846289	-13.9936079	110	12	1.1	0.9;
	25	1	1.4	0.2	0	4.93	0	1.01187776	29.6542817	154	1	1.1	0.9;
	26	1	161.2	39.3	0	30.71	0	1.03237606	5.33955927	220	5	1.1	0.9;
	27	1	0	-0	0	0.85	0	1.03239009	8.82103087	220	5	1.1	0.9;
	28	1	19.62	7.1	0	1.15	0	0.999412963	-5.24923711	110	19	1.1	0.9;
	29	2	0	0	0	0	0	1.033319	0.0992409515	20	18	1.1	0.9;
	30	1	31.94	8.8	0	0.73	0	1.01552438	-5.64370385	110	22	1.1	0.9;
	31	1	0	-0	0.235277	0.313936	0	1.02952555	40.1069089	220	3	1.1	0.9;
	32	1	167.3	54.8	0	110.54	0	1.0103685	24.7744671	380	5	1.1	0.9;
	33	2	0	0	0	0	0	1.018631	-12.8545588	20	4	1.1	0.9;
	34	1	-0	0	0	14.82	0	1.04982421	40.1015877	380	13	1.1	0.9;
	35	1	0	0	0	0	0	1.00983841	-11.7315264	150	9	1.1	0.9;
	36	1	152.9	49.4	0	27.65	0	0.983894279	13.5409339	380	5	1.1	0.9;
	37	1	-0	0	0	0.56	0	1.02808772	-10.1179296	150	9	1.1	0.9;
	38	1	69.68	43.2	0	6.3	0	0.918518704	-13.9020503	150	9	1.1	0.9;
	39	2	0	0	0	0	0	1.073284	-0.993809572	20	9	1.1	0.9;
	40	1	0	-0	0	37.54	0	1.00280336	-16.3738373	220	4	1.1	0.9;
	41	1	0	-0	0	0.25	0	1.02084564	-11.8512694	220	4	1.1	0.9;
	42	2	0	0	0	0	0	0.985213	25.6639325	11	1	1.1	0.9;
	43	1	13.51	4.9	0	1.8	0	1.02316409	-3.50176653	110	19	1.1	0.9;
	44	1	10.51	3.5	0	0.31	0	0.990883933	-12.2222403	110	12	1.1	0.9;
	45	2	0	0	0	0	0	1.012099	-20.1583793	20	4	1.1	0.9;
	46	1	-0	0	0.12	15.34	0	1.04062602	-0.0863003422	220	19	1.1	0.9;
	47	1	9.21	2.6	0	2	0	0.975606248	-7.71412649	110	18	1.1	0.9;
	48	1	42.75	12.8	0	13.3	0	1.05676203	52.9424447	220	8	1.1	0.9;
	49	1	-0	0	0.019959	0.320041	0	0.998827813	-11.6920182	150	10	1.1	0.9;
	50	1	16.02	4.54	0	0.1	0	0.983507059	-9.91457009	110	23	1.1	0.9;
	51	2	0	0	0	0	0	1.011416	41.5994983	14.4	1	1.1	0.9;
	52	1	27.9	4	0	4.23	0	0.988126214	13.2123284	154	1	1.1	0.9;
	53	1	20.82	7.9	0	26.89	0	1.01610368	-22.7503389	380	4	1.1	0.9;
	54	2	0	0	0	0	0	1.021005	21.8561862	20	14	1.1	0.9;
	55	1	0	0	0	7.27	0	1.03727434	5.07932934	220	5	1.1	0.9;
	56	1	10.11	3.7	0	0.81	0	1.04365732	-4.0124626	110	19	1.1	0.9;
	57	1	10.01	2.7	0	1.14	0	0.954269437	-7.65941298	110	18	1.1	0.9;
	58	1	6.31	-0	0	0.67	0	0.981117242	-5.94154983	110	18	1.1	0.9;
	59	1	2.9	0.9	0	0.6	0	1.03861489	-5.00846499	110	15	1.1	0.9;
	60	1	-0	0	0.318913	17.760815	0	1.00709569	-8.9555403	220	6	1.1	0.9;
	61	1	-0	-0	0.549745	0.432068	0	1.04743018	30.9209274	380	2	1.1	0.9;
	62	2	0	0	0	0	0	1.058268	13.5488791	20	5	1.1	0.9;
	63	2	0	0	0	0	0	1.058268	13.5488791	20	5	1.1	0.9;
	64	1	151.8	48.3	0	5.53	0	1.0085713	-21.4818121	220	4	1.1	0.9;
	65	1	127.6	31.8	0	20.51	0	0.999184174	27.1388748	150	8	1.1	0.9;
	66	2	0	0	0	0	0	1.034768	7.13322837	20	22	1.1	0.9;
	67	1	0	0	0	0.84	0	0.975761463	-7.37265042	110	21	1.1	0.9;
	68	2	0	0	0	0	0	1.035023	-12.0094134	20	4	1.1	0.9;
	69	2	0	0	0	0	0	1.035023	-12.0094134	20	4	1.1	0.9;
	70	1	110.5	-26.8	0	16.37	0	1.00864472	-8.23145133	220	6	1.1	0.9;
	71	1	-0	-0	0	0	0	1.02036092	12.0198974	20	5	1.1	0.9;
	72	1	-0	-0	0	0	0	1.02036092	12.0198974	20	5	1.1	0.9;
	73	1	0	0	0	1.23	0	0.994054633	36.7748411	220	3	1.1	0.9;
	74	1	0	-0	0	0	0	1.0250025	16.5110087	20	5	1.1	0.9;
	75	1	0	-0	0	0	0	1.0250025	16.5110087	20	5	1.1	0.9;
	76	1	0	-0	0	0	0	1.0250025	16.5110087	20	5	1.1	0.9;
	77	2	0	0	0	0	0	1.038344	8.86025477	20	5	1.1	0.9;
	78	2	0	0	0	0	0	1.027383	16.5455622	20	5	1.1	0.9;
	79	2	0	0	0	0	0	1.016716	23.4147554	20	5	1.1	0.9;
	80	1	140	79.7	0	6.5	0	1.00823836	10.4350079	220	3	1.1	0.9;
	81	1	21.6	3	0	3.54	0	0.990484083	12.1640284	154	1	1.1	0.9;
	82	1	0	-0	0	2.31	0	1.00485731	8.68885033	380	5	1.1	0.9;
	83	1	119.2	20.7	0	3.31	0	1.01717708	3.25275174	220	5	1.1	0.9;
	84	1	26.43	9.9	0	9.57	0	0.990370325	-14.6552313	110	22	1.1	0.9;
	85	1	0.24	-1.66	0	0.65	0	1.02456721	2.98853761	110	18	1.1	0.9;
	86	2	0	0	0	0	0	1.023881	-6.18022324	20	6	1.1	0.9;
	87	1	-0	0	0	0	0	1.01464978	-10.8292592	20	6	1.1	0.9;
	88	1	-0	0	0	0	0	1.01464978	-10.8292592	20	6	1.1	0.9;
	89	1	0	0	0	58.57	0	1.06703127	73.2652862	380	3	1.1	0.9;
	90	1	-0	0	0	1.34	0	0.965697991	-5.84728922	110	18	1.1	0.9;
	91	1	187.9	110.2	0	21.25	0	1.01030774	32.3018189	380	3	1.1	0.9;
	92	1	14.92	5.5	0	1.31	0	1.05638039	-2.72076187	110	15	1.1	0.9;
	93	1	-18.52	6.1	0	0.79	0	0.933013994	-12.4825882	150	9	1.1	0.9;
	94	2	0	0	0	0	0	1.022611	19.3974856	11	1	1.1	0.9;
	95	1	4.61	1.7	0	2.32	0	0.998122915	1.43702182	110	19	1.1	0.9;
	96	2	0	0	0	0	0	1.043225	-5.81031758	20	4	1.1	0.9;
	97	2	0	0	0	0	0	1.043225	-5.81031758	20	4	1.1	0.9;
	98	2	0	0	0	0	0	1.043225	-5.81031758	20	4	1.1	0.9;
	99	2	0	0	0	0	0	1.031885	-13.2532484	20	4	1.1	0.9;
	100	2	0	0	0	0	0	1.031885	-13.2532484	20	4	1.1	0.9;
	101	2	0	0	0	0	0	1.043225	-5.81031758	20	4	1.1	0.9;
	102	2	0	0	0	0	0	1.043225	-5.81031758	20	4	1.1	0.9;
	103	1	62.87	20.5	0	1.15	0	0.997076211	25.8766111	150	8	1.1	0.9;
	104	2	0	0	0	0	0	1.052257	46.7364832	20	3	1.1	0.9;
	105	1	13.5	14.8	0	132.435168	0	1.14236613	-1.3460766	380	9	1.2	0.8;
	106	1	126.3	42.4	0	55.24	0	1.04208733	30.4905305	150	8	1.1	0.9;
	107	2	0	0	0	0	0	1.028153	79.1414007	20	3	1.1	0.9;
	108	1	6.91	-4.6	0	5.75	0	1.02022299	-14.7420917	220	4	1.1	0.9;
	109	1	15.72	5.2	0	0.11	0	0.997966719	-14.3481713	110	12	1.1	0.9;
	110	2	0	0	0	0	0	1.051233	87.6660708	20	3	1.1	0.9;
	111	1	16.12	4.3	0	0.49	0	1.04070839	-3.30253448	110	23	1.1	0.9;
	112	1	38.74	6.1	0	1.17	0	1.01480236	-26.9923447	220	4	1.1	0.9;
	113	1	22.13	10.7	0	14.21	0	1.05681626	52.9521337	220	8	1.1	0.9;
	114	2	0	0	0	0	0	1.030832	-11.1014634	20	4	1.1	0.9;
	115	2	0	0	0	0	0	1.019	-4.28696447	20	10	1.1	0.9;
	116	1	0	-0	0	0.73	0	1.01574898	-24.0811381	220	4	1.1	0.9;
	117	1	0	0	0	0.83	0	0.982670561	0.912395737	110	18	1.1	0.9;
	118	1	138.8	136.7	0	8.76	0	1.00581953	41.2645125	380	3	1.1	0.9;
	119	1	137.3	66.4	0.174767	14.17407	0	1.04739436	-4.54535415	220	23	1.1	0.9;
	120	1	67.76	19.18	0	1.47	0	0.992228624	88.7570278	150	1	1.1	0.9;
	121	2	0	0	0	0	0	1.045359	8.16487508	20	14	1.1	0.9;
	122	1	0	-0	0	6.62	0	0.988607594	40.9361765	220	3	1.1	0.9;
	123	1	-0	-0	0	7.22	0	1.02607283	45.2255707	380	1	1.1	0.9;
	124	1	1	0.3	0	0.19	0	1.04640632	-3.23540887	110	19	1.1	0.9;
	125	1	20.9	3	0	5.74	0	0.97954694	40.5863536	154	1	1.1	0.9;
	126	1	0	0	0	0.12	0	1.05426086	-5.23171577	150	9	1.1	0.9;
	127	1	21.52	5.1	0	0.5	0	1.01598636	6.66278462	110	18	1.1	0.9;
	128	1	71.98	28.8	0	11	0	0.992512231	-5.82994131	220	6	1.1	0.9;
	129	1	0	0	0.205132	4.470744	0	0.998890628	23.7428382	380	2	1.1	0.9;
	130	1	363.25	115.39	0	3.95	0	1.03257821	-0.809936095	220	5	1.1	0.9;
	131	1	192.9	73.3	0	20.75	0	1.00912774	30.7633323	380	3	1.1	0.9;
	132	2	0	0	0	0	0	0.996117	29.1439219	11	1	1.1	0.9;
	133	2	0	0	0	0	0	1.042317	11.0585294	20	14	1.1	0.9;
	134	2	0	0	0	0	0	1.044129	-6.05028418	20	4	1.1	0.9;
	135	2	0	0	0	0	0	1.030832	-11.1014634	20	4	1.1	0.9;
	136	2	0	0	0	0	0	1.049674	86.9698868	20	3	1.1	0.9;
	137	1	17.52	6.3	0	0.26	0	1.03727462	0.232510173	110	19	1.1	0.9;
	138	1	33.14	12	0	0.65	0	0.998635588	-2.29170383	110	19	1.1	0.9;
	139	1	40.44	25	0	9.82	0	0.98279688	-10.8231985	150	9	1.1	0.9;
	140	1	193.17	53.37	0	4.58	0	1.00849583	11.9044792	220	5	1.1	0.9;
	141	1	90.7	25.5	0	3.11	0	1.08009255	24.6122001	220	3	1.2	0.8;
	142	1	176.3	-58.9	0	24.77	0	1.01014202	-1.76803224	380	6	1.1	0.9;
	143	1	35.94	22.3	0	0	0	1.04272115	-8.94562211	150	9	1.1	0.9;
	144	2	0	0	0	0	0	1.034631	6.54282727	20	14	1.1	0.9;
	145	2	0	0	0	0	0	1.040587	36.2084637	20	5	1.1	0.9;
	146	2	0	0	0	0	0	1.044313	35.0966066	20	5	1.1	0.9;
	147	2	0	0	0	0	0	1.044313	35.0966066	20	5	1.1	0.9;
	148	1	143.9	123.2	0	72.64	0	1.01403291	31.9704313	380	3	1.1	0.9;
	149	1	-0	-0	0	3.77	0	0.998766426	-24.1687613	220	6	1.1	0.9;
	150	1	-0	8.4	0	15.72	0	1.03576414	-8.68151417	150	9	1.1	0.9;
	151	2	0	0	0	0	0	1.023215	16.3515489	13.8	1	1.1	0.9;
	152	1	51.36	-8.8	0	2.15	0	0.956450778	-29.1292859	220	6	1.1	0.9;
	153	2	0	0	0	0	0	1.027348	17.9316054	20	14	1.1	0.9;
	154	2	0	0	0	0	0	1.05252	75.3435854	20	3	1.1	0.9;
	155	1	-0	-0	0	82.55	0	1.02069413	-7.28697226	380	6	1.1	0.9;
	156	2	0	0	0	0	0	1.034597	17.2149338	20	6	1.1	0.9;
	157	1	322.7	11.9	0	10.28	0	0.998575714	-13.9282081	380	6	1.1	0.9;
	158	1	303.6	79.8	0.019533	1.690467	0	1.03070727	11.6550362	220	5	1.1	0.9;
	159	1	3.8	1.3	0	0.4	0	1.00356231	5.27825496	110	18	1.1	0.9;
	160	1	137	19.5	0	4.9	0	1.00518199	9.89209669	154	1	1.1	0.9;
	161	2	0	0	0	0	0	1.034597	17.2149338	20	6	1.1	0.9;
	162	2	0	0	0	0	0	1.034597	17.2149338	20	6	1.1	0.9;
	163	1	0	0	0	0	0	0.999237584	-12.1038891	150	9	1.1	0.9;
	164	1	61.07	36	0	3.09	0	1.04197347	1.78746871	220	11	1.1	0.9;
	165	2	0	0	0	0	0	1.030832	-11.1014634	20	4	1.1	0.9;
	166	1	-0	0	0	3.24	0	1.06016972	17.3120496	220	3	1.1	0.9;
	167	1	0	0	0	6.520303	0	1.02522085	12.967446	380	5	1.1	0.9;
	168	1	55.7	7.9	0	4.21	0	0.982815675	33.2702361	154	1	1.1	0.9;
	169	1	0	0	0	4.21	0	1.04425097	7.44094841	220	5	1.1	0.9;
	170	1	1.8	0.7	0	0.3	0	0.968953896	-2.46236908	110	19	1.1	0.9;
	171	1	0	-0	0	0.71	0	1.00425712	-11.2027156	150	9	1.1	0.9;
	172	1	2.5	0	0	0.96	0	0.954231642	-7.8948419	110	18	1.1	0.9;
	173	1	0	0	0	0.09	0	1.07144455	-0.755928686	150	9	1.1	0.9;
	174	1	38.94	11	0	0.64	0	0.983011496	-11.2653619	110	1	1.1	0.9;
	175	1	45.15	14.1	0	0.19	0	1.05555775	-4.11094878	110	15	1.1	0.9;
	176	1	0	-0	0	5.75	0	0.994627564	35.80723	220	3	1.1	0.9;
	177	1	0	0	0.019004	4.360996	0	1.03998349	5.38347949	220	11	1.1	0.9;
	178	1	0	-0	0.566322	-0.241138	0	1.06629084	36.9435116	220	5	1.1	0.9;
	179	2	0	0	0	0	0	1.023144	-10.8091692	20	4	1.1	0.9;
	180	1	17.22	5.7	0	1.22	0	0.938902088	-10.1796342	110	21	1.1	0.9;
	181	1	-0	-0	0	0	0	1.02155543	10.4958146	20	14	1.1	0.9;
	182	2	0	0	0	0	0	1.054937	2.9524986	20	20	1.1	0.9;
	183	1	0	0	0	4.3	0	1.00620944	-1.18169899	220	6	1.1	0.9;
	184	1	23.73	12.7	0	0.52	0	1.02021314	11.2278322	220	5	1.1	0.9;
	185	1	121.9	7.4	0	1.34	0	1.01022698	14.7991547	220	3	1.1	0.9;
	186	1	0	-0	0.135375	47.750675	0	1.04319831	-20.8686752	380	10	1.1	0.9;
	187	1	47.35	16.4	0	4.08	0	1.02671938	-13.9061699	110	22	1.1	0.9;
	188	1	-0	0	0	0	0	1.02137983	-23.5826029	20	4	1.1	0.9;
	189	1	-0	-0	0	21.39	0	1.0431562	-17.385998	380	1	1.1	0.9;
	190	1	38.14	12.5	0	6.28	0	1.0069048	28.7982509	150	8	1.1	0.9;
	191	1	54.2	7.8	0	94.9	0	0.97382824	28.9864703	400	1	1.1	0.9;
	192	1	130.6	84.9	0	4.22	0	1.00769895	5.05875739	220	7	1.1	0.9;
	193	1	7.91	2.6	0	0.74	0	0.98295105	-11.9243502	110	12	1.1	0.9;
	194	1	42.1	74.61	0	37.58	0	0.983956797	89.0559162	150	1	1.1	0.9;
	195	1	-75.38	7.8	0	29.9	0	1.0589148	-15.4171773	380	10	1.1	0.9;
	196	2	0	0	0	0	0	1.021915	-11.2958645	20	6	1.1	0.9;
	197	2	0	0	0	0	0	1.005341	-3.25479059	20	4	1.1	0.9;
	198	1	41.05	14.3	0	11.53	0	1.00291581	-1.71566936	220	6	1.1	0.9;
	199	1	-0	-0	0	4.14	0	1.02991643	44.5918946	220	8	1.1	0.9;
	200	1	100.9	49.3	0.020067	4.329933	0	0.982030476	23.9665728	220	13	1.1	0.9;
...
];

%%  PMU voltage data (confidence intervals around measurements)
%	bus_i	VR_MAX	VR_MIN	VI_MAX	VI_MIN
mpc.Vpmu = [
	10	0.905859	0.905859	-0.233794	-0.233794;
	11	1.03847	1.03847	0.00908156	0.00908156;
	16	1.04118	1.0397	-0.129343	-0.12952;
	18	1.02754	1.02754	0.179424	0.179424;
	20	0.869749	0.869749	0.484943	0.484943;
	24	0.948826	0.948826	-0.236457	-0.236457;
	25	0.879349	0.879349	0.500642	0.500642;
	28	0.995222	0.995222	-0.0914347	-0.0914347;
	30	1.0106	1.0106	-0.0998687	-0.0998687;
	34	0.803506	0.802396	0.67667	0.675793;
	37	1.0121	1.0121	-0.180609	-0.180609;
	41	0.999791	0.998332	-0.209497	-0.209784;
	48	0.637279	0.636394	0.843979	0.842818;
	55	1.0332	1.0332	0.091835	0.091835;
	57	0.946327	0.945002	-0.127092	-0.127278;
	62	1.02882	1.02882	0.247926	0.247926;
	63	1.02949	1.02815	0.248095	0.247755;
	64	0.93851	0.93851	-0.369345	-0.369345;
	67	0.967694	0.967694	-0.125212	-0.125212;
	70	0.998253	0.998253	-0.14441	-0.14441;
	72	0.99799	0.99799	0.212492	0.212492;
	73	0.796858	0.795651	0.595533	0.594701;
	77	1.02595	1.02595	0.159931	0.159931;
	80	0.991563	0.991563	0.182612	0.182612;
	84	0.958149	0.958149	-0.250566	-0.250566;
	85	1.02393	1.02246	0.0534543	0.0533769;
	87	0.99658	0.99658	-0.190635	-0.190635;
	89	0.307242	0.307242	1.02184	1.02184;
	92	1.05519	1.05519	-0.0501447	-0.0501447;
	95	0.997809	0.997809	0.0250311	0.0250311;
	99	1.0052	1.00376	-0.236377	-0.236721;
	100	1.00509	1.00368	-0.236388	-0.236713;
	110	0.0428099	0.0428099	1.05036	1.05036;
	113	0.637196	0.636264	0.844019	0.842824;
	119	1.0441	1.0441	-0.0830041	-0.0830041;
	120	0.0215237	0.0215237	0.991995	0.991995;
	130	1.03248	1.03248	-0.0145961	-0.0145961;
	131	0.867131	0.867131	0.516162	0.516162;
	135	1.01154	1.01154	-0.198484	-0.198484;
	146	0.85444	0.85444	0.600435	0.600435;
	147	0.85444	0.85444	0.600435	0.600435;
	156	0.988248	0.988248	0.306196	0.306196;
	157	0.969216	0.969216	-0.240363	-0.240363;
	159	0.999954	0.998646	0.0923907	0.0922492;
	170	0.968674	0.967393	-0.0416025	-0.0416545;
	172	0.945187	0.945187	-0.131069	-0.131069;
	175	1.05367	1.05202	-0.0756149	-0.0757208;
	176	0.806633	0.806633	0.581917	0.581917;
	177	1.03615	1.03472	0.0976316	0.0975091;
	181	1.00512	1.00376	0.186207	0.185951;
	182	1.05354	1.05354	0.0543377	0.0543377;
	183	1.00665	1.00526	-0.0207385	-0.0207669;
	190	0.882372	0.882372	0.485053	0.485053;
	194	0.0162231	0.0161995	0.984608	0.983217;
	196	1.00212	1.00212	-0.200168	-0.200168;
	203	0.979989	0.979989	0.30902	0.30902;
	204	0.734368	0.734368	0.759752	0.759752;
	206	0.972674	0.972674	0.335931	0.335931;
	207	0.920602	0.920602	0.430911	0.430911;
	208	1.09456	1.09456	-0.0142016	-0.0142016;
	209	0.751028	0.751028	0.731247	0.731247;
	211	0.967504	0.966111	0.354421	0.353953;
	212	0.978348	0.978348	-0.240631	-0.240631;
	219	0.989211	0.989211	-0.101249	-0.101249;
	221	0.780076	0.780076	0.711257	0.711257;
	223	0.780076	0.780076	0.711257	0.711257;
	225	0.762708	0.762708	0.723255	0.723255;
	226	1.00009	1.00009	0.137831	0.137831;
	228	0.831126	0.831126	0.565831	0.565831;
	232	1.09201	1.09061	-0.13058	-0.130745;
	233	0.996499	0.995191	0.303789	0.303342;
	238	0.794798	0.793757	0.658366	0.657453;
	239	0.949033	0.949033	0.393856	0.393856;
	244	1.08309	1.08309	0.0307439	0.0307439;
	247	1.04171	1.04171	-0.0218801	-0.0218801;
	250	0.950822	0.949349	-0.348547	-0.349029;
	255	0.999737	0.999737	-0.190993	-0.190993;
	256	1.07899	1.07899	0.123254	0.123254;
	261	1.02585	1.02585	0.00419123	0.00419123;
	262	1.00103	0.999506	0.27352	0.27319;
	264	0.973462	0.972015	-0.148959	-0.149164;
	266	1.00584	1.00584	-0.0125454	-0.0125454;
	273	0.909852	0.909852	 0.527	0.527;
	276	0.911305	0.910086	0.52366	0.522996;
	281	0.971712	0.9703	0.337417	0.336962;
	282	1.02674	1.02527	0.00431274	0.0043066;
	285	0.998561	0.998561	0.19358	0.19358;
	286	0.968405	0.968405	-0.358656	-0.358656;
	288	0.964747	0.963518	-0.290872	-0.291246;
	297	0.952871	0.952871	-0.389683	-0.389683;
	298	1.04234	1.04234	0.00317466	0.00317466;
	304	0.992206	0.992206	-0.304903	-0.304903;
	308	0.961461	0.961461	0.420319	0.420319;
	310	0.889638	0.889638	0.569949	0.569949;
	313	0.357474	0.357474	1.02731	1.02731;
	316	0.958864	0.958864	-0.205442	-0.205442;
	320	0.96001	0.958596	0.432746	0.432187;
	321	0.998742	0.997287	0.249174	0.248818;
	322	1.03326	1.03326	0.208237	0.208237;
	329	1.01736	1.01592	0.0211576	0.0211246;
	334	0.976666	0.976666	-0.28535	-0.28535;
	336	0.989902	0.989902	-0.204783	-0.204783;
	338	0.993338	0.991847	-0.124212	-0.124389;
	343	1.02741	1.02741	0.00618469	0.00618469;
	344	0.92884	0.927456	-0.346788	-0.347306;
	346	1.0214	1.0214	-0.135867	-0.135867;
	348	0.945986	0.945986	-0.107805	-0.107805;
	349	0.998254	0.998254	0.214243	0.214243;
	350	0.930284	0.928924	-0.274188	-0.274564;
	351	1.01478	1.01478	-0.140692	-0.140692;
	355	1.0443	1.04284	-0.0594906	-0.0595771;
	360	0.973591	0.972136	-0.33404	-0.334511;
	365	0.997726	0.996377	0.0304311	0.0303898;
	373	0.987403	0.986068	-0.0334396	-0.033484;
	375	0.961496	0.961496	-0.282451	-0.282451;
	384	0.974191	0.974191	-0.177353	-0.177353;
	385	0.281885	0.281885	1.00368	1.00368;
	387	1.05522	1.05376	-0.0656748	-0.0657737;
	388	1.04537	1.04537	0.184786	0.184786;
	389	1.01893	1.01893	-0.109377	-0.109377;
	390	0.951996	0.951996	-0.34134	-0.34134;
	391	1.02229	1.02229	-0.0656542	-0.0656542;
	393	0.996206	0.996206	-0.232863	-0.232863;
	396	1.02577	1.02422	-0.096822	-0.0969429;
	401	0.896919	0.896919	-0.475857	-0.475857;
	402	0.927147	0.927147	0.385858	0.385858;
	406	1.00022	0.998724	-0.128907	-0.129079;
	408	0.998675	0.998675	-0.302528	-0.302528;
	410	0.9705	0.969254	-0.249007	-0.249327;
	417	0.88114	0.88114	0.474322	0.474322;
	427	0.951589	0.951589	-0.393022	-0.393022;
	430	1.04667	1.04667	0.171113	0.171113;
	434	1.03514	1.03514	-0.0697729	-0.0697729;
	437	1.02909	1.02909	-0.0008756	-0.0008756;
	447	0.99799	0.99799	0.212492	0.212492;
	450	1.01983	1.01983	-0.0529209	-0.0529209;
	453	0.981522	0.980298	-0.0898164	-0.0899431;
	456	1.00557	1.00557	-0.287968	-0.287968;
	460	1.07826	1.07826	-0.000831381	-0.000831381;
	462	0.758992	0.758992	0.645929	0.645929;
	467	0.992574	0.991329	0.195841	0.195579;
	469	0.981371	0.981371	0.396924	0.396924;
	475	-0.0130537	-0.0130712	1.0519	1.05048;
	485	1.05494	1.05494	0.099507	0.099507;
	486	0.647506	0.647506	0.863243	0.863243;
	491	0.968926	0.968926	-0.175629	-0.175629;
	493	1.00256	1.00256	-0.092187	-0.092187;
	500	0.991356	0.991356	0.00248969	0.00248969;
	505	0.993788	0.992256	-0.0159877	-0.0160111;
	508	0.879515	0.879515	0.563924	0.563924;
	518	1.02347	1.02347	0.106645	0.106645;
	519	0.958841	0.958841	0.304075	0.304075;
	520	0.842317	0.842317	0.602407	0.602407;
	524	1.02146	1.02146	-0.104724	-0.104724;
	529	0.995854	0.994521	-0.238517	-0.238863;
	530	0.72136	0.720414	0.783969	0.782921;
	531	1.03125	1.02969	-0.104908	-0.105057;
	533	1.01094	1.01094	0.10497	0.10497;
	534	0.919676	0.919676	-0.150246	-0.150246;
	535	0.989612	0.989612	0.237005	0.237005;
	536	0.817851	0.817851	0.639702	0.639702;
	541	0.991876	0.990528	-0.0899034	-0.0900416;
	544	1.02312	1.02312	0.0573616	0.0573616;
	545	0.972275	0.972275	0.0535498	0.0535498;
	550	1.08658	1.08658	-0.00626376	-0.00626376;
	552	0.929816	0.929816	0.363491	0.363491;
	554	0.962699	0.962699	-0.18504	-0.18504;
	555	1.02157	1.02157	-0.0690516	-0.0690516;
	558	0.81295	0.81295	0.622721	0.622721;
	564	1.02068	1.02068	-0.0883889	-0.0883889;
	567	1.01583	1.01583	0.208541	0.208541;
	573	0.982153	0.982153	0.124046	0.124046;
	575	0.946167	0.946167	0.372192	0.372192;
	578	0.974186	0.974186	-0.132048	-0.132048;
	582	0.386513	0.386513	 1.007	1.007;
	583	0.777492	0.77648	0.690404	0.689442;
	588	1.00976	1.00829	0.105169	0.105024;
	591	0.988619	0.987394	-0.138371	-0.138561;
	598	0.927658	0.927658	0.331282	0.331282;
	601	0.994468	0.992995	0.276012	0.275624;
	602	0.978661	0.978661	0.271687	0.271687;
	604	0.991462	0.991462	-0.208847	-0.208847;
	606	0.958631	0.957422	0.368402	0.36792;
	609	0.975803	0.975803	0.36305	0.36305;
	611	0.751424	0.751424	0.637586	0.637586;
	614	1.02516	1.02516	0.117761	0.117761;
	618	0.977024	0.977024	-0.209525	-0.209525;
	619	1.03055	1.03055	0.0444105	0.0444105;
	621	0.806912	0.806912	0.597321	0.597321;
	628	1.05104	1.04953	-0.172979	-0.173237;
	632	1.02739	1.02593	-0.0876928	-0.0878005;
	633	0.862325	0.861081	0.558425	0.557632;
	636	0.986383	0.986383	-0.193402	-0.193402;
	649	1.02216	1.02075	-0.135779	-0.135972;
	650	0.93376	0.93376	-0.34268	-0.34268;
	655	0.994499	0.994499	0.265943	0.265943;
	658	0.96894	0.96894	0.229026	0.229026;
	659	0.96085	0.959486	-0.180877	-0.181156;
	661	0.955568	0.955568	0.329763	0.329763;
	662	1.07545	1.07545	-0.110543	-0.110543;
...
];

%% PMU current injection data (confidence intervals around measurements)
%	bus_i	IR_MAX	IR_MIN	II_MAX	II_MIN
mpc.Ipmu = [
	10	-0.293642	-0.293642	0.18949	0.18949;
	11	    -0	-0	     0	0;
	16	0.0602339	0.0601442	0.011745	0.0117282;
	18	0.376908	0.376908	-0.0395006	-0.0395006;
	20	-0.289417	-0.289417	-0.11193	-0.11193;
	24	-0.232804	-0.232804	0.137062	0.137062;
	25	-0.0130015	-0.0130015	-0.00512776	-0.00512776;
	28	-0.188992	-0.188992	0.0887043	0.0887043;
	30	-0.304471	-0.304471	0.117165	0.117165;
	34	6.08679e-10	-6.70664e-10	6.17935e-10	-6.68013e-10;
	37	     0	0	     0	0;
	41	7.03116e-10	-6.67437e-10	6.50505e-10	-7.0321e-10;
	48	-0.34023	-0.340678	-0.24968	-0.250033;
	55	     0	0	     0	0;
	57	-0.100111	-0.100263	0.0420484	0.0419936;
	62	6.0696	6.0696	-0.272279	-0.272279;
	63	6.07359	6.06504	-0.272078	-0.272489;
	64	-1.22517	-1.22517	0.996804	0.996804;
	67	     0	0	     0	0;
	70	-1.12228	-1.12228	-0.106116	-0.106116;
	72	     0	0	     0	0;
	73	7.89344e-10	-6.76198e-10	6.58893e-10	-6.39566e-10;
	77	0.244946	0.244946	-0.0300311	-0.0300311;
	80	-1.50877	-1.50877	0.525918	0.525918;
	84	-0.232897	-0.232897	0.164229	0.164229;
	85	-0.00149361	-0.00149561	-0.0162897	-0.0163127;
	87	     0	0	     0	0;
	89	    -0	-0	     0	0;
	92	-0.138606	-0.138606	0.0587102	0.0587102;
	95	-0.0465993	-0.0465993	0.0158683	0.0158683;
	99	0.209094	0.208839	-0.120864	-0.121051;
	100	0.209124	0.208814	-0.120878	-0.121041;
	110	0.120279	0.120279	0.865941	0.865941;
	113	-0.206819	-0.207116	-0.106061	-0.10621;
	119	-1.25651	-1.25651	0.735845	0.735845;
	120	-0.208071	-0.208071	-0.678553	-0.678553;
	130	-3.50175	-3.50175	1.16711	1.16711;
	131	-2.01411	-2.01411	-0.353585	-0.353585;
	135	0.391835	0.391835	-0.136746	-0.136746;
	146	6.22732	6.22732	1.33158	1.33158;
	147	6.22732	6.22732	1.33158	1.33158;
	156	0.481715	0.481715	0.0566496	0.0566496;
	157	-3.1079	-3.1079	0.893532	0.893532;
	159	-0.0388668	-0.0389234	0.00942237	0.00940808;
	170	-0.0182362	-0.0182636	0.00802062	0.00801004;
	172	-0.0259508	-0.0259508	0.00359859	0.00359859;
	175	-0.416748	-0.417369	0.164029	0.163777;
	176	    -0	-0	     0	0;
	177	7.46282e-10	-6.95931e-10	7.66055e-10	-6.27277e-10;
	181	7.89354e-10	-6.71909e-10	7.28715e-10	-7.03279e-10;
	182	0.337247	0.337247	-0.104931	-0.104931;
	183	7.25858e-10	-7.5047e-10	7.59277e-10	-6.86174e-10;
	190	-0.39174	-0.39174	-0.0736817	-0.0736817;
	194	-0.764635	-0.765765	-0.415019	-0.415567;
	196	0.739145	0.739145	-0.34965	-0.34965;
	203	     0	0	     0	0;
	204	    -0	-0	     0	0;
	206	-0.36993	-0.36993	-0.0701889	-0.0701889;
	207	0.264668	0.264668	0.083187	0.083187;
	208	-2.45489	-2.45489	0.632093	0.632093;
	209	0.189577	0.189577	-0.0755934	-0.0755934;
	211	-0.334765	-0.335211	0.00138629	0.00138446;
	212	-0.857875	-0.857875	0.671981	0.671981;
	219	     0	0	     0	0;
	221	0.935821	0.935821	0.347537	0.347537;
	223	0.935821	0.935821	0.347537	0.347537;
	225	0.948785	0.948785	0.349744	0.349744;
	226	-0.0948377	-0.0948377	0.0199266	0.0199266;
	228	-1.70225	-1.70225	-0.433372	-0.433372;
	232	7.98059e-10	-6.10167e-10	7.22712e-10	-7.94514e-10;
	233	7.58855e-10	-6.40409e-10	7.5012e-10	-6.82586e-10;
	238	7.82863e-10	-7.32251e-10	7.16261e-10	-7.22679e-10;
	239	-2.8037	-2.8037	0.217849	0.217849;
	244	-0.933378	-0.933378	0.0953793	0.0953793;
	247	-3.55849	-3.55849	-0.0884501	-0.0884501;
	250	1.78075	1.77821	-0.672855	-0.673757;
	255	-0.694058	-0.694058	0.612721	0.612721;
	256	     0	0	     0	0;
	261	-0.291069	-0.291069	0.0699714	0.0699714;
	262	7.33314e-10	-7.39892e-10	6.09811e-10	-7.18289e-10;
	264	-0.18982	-0.190066	0.0970304	0.096887;
	266	0.282257	0.282257	-0.071371	-0.071371;
	273	6.04769	6.04769	1.44933	1.44933;
	276	6.04872	6.04065	1.4562	1.45415;
	281	-0.740399	-0.74145	-0.0353487	-0.0353937;
	282	6.50261e-10	-6.2026e-10	6.8074e-10	-6.72501e-10;
	285	-0.405637	-0.405637	0.0395338	0.0395338;
	286	-0.385577	-0.385577	0.195466	0.195466;
	288	-0.463343	-0.463999	0.201306	0.201017;
	297	-0.440908	-0.440908	0.345078	0.345078;
	298	-0.326929	-0.326929	0.117008	0.117008;
	304	0.343626	0.343626	-0.193021	-0.193021;
	308	0.18069	0.18069	0.00683637	0.00683637;
	310	0.274332	0.274332	0.134651	0.134651;
	313	0.118397	0.118397	0.202058	0.202058;
	316	-0.349041	-0.349041	0.18846	0.18846;
	320	-0.911099	-0.91237	-0.409669	-0.410267;
	321	-0.693703	-0.694689	-0.0216892	-0.0217198;
	322	     0	0	     0	0;
	329	-0.26736	-0.267745	0.0810485	0.0809423;
	334	     0	0	     0	0;
	336	0.155695	0.155695	-0.0326043	-0.0326043;
	338	0.159821	0.159603	-0.0182457	-0.0182701;
	343	-4.15753	-4.15753	0.886976	0.886976;
	344	-1.35688	-1.3588	0.750963	0.749913;
	346	3.1315	3.1315	-0.97515	-0.97515;
	348	-0.0215696	-0.0215696	0.0426278	0.0426278;
	349	-0.31477	-0.31477	0.0416354	0.0416354;
	350	-0.323784	-0.324205	0.143061	0.142842;
	351	1.56833	1.56833	-0.599844	-0.599844;
	355	-0.430333	-0.430912	0.186652	0.186372;
	360	0.720497	0.719409	-0.420996	-0.421589;
	365	0.965505	0.964243	-0.330461	-0.330984;
	373	6.39151e-10	-7.72393e-10	6.38937e-10	-7.22584e-10;
	375	     0	0	     0	0;
	384	     0	0	     0	0;
	385	    -0	-0	     0	0;
	387	6.10094e-10	-7.75372e-10	6.19142e-10	-7.48461e-10;
	388	     0	0	     0	0;
	389	     0	0	     0	0;
	390	-0.978379	-0.978379	0.608154	0.608154;
	391	-0.849391	-0.849391	0.177802	0.177802;
	393	-0.379214	-0.379214	0.210102	0.210102;
	396	0.807291	0.806233	-0.266762	-0.267164;
	401	-1.00442	-1.00442	0.771485	0.771485;
	402	-0.47504	-0.47504	-0.123279	-0.123279;
	406	0.322697	0.322253	-0.109325	-0.109465;
	408	0.293569	0.293569	-0.185174	-0.185174;
	410	7.52193e-10	-7.13601e-10	6.6602e-10	-6.94688e-10;
	417	-1.01823	-1.01823	-0.260992	-0.260992;
	427	-1.72908	-1.72908	0.678407	0.678407;
	430	-1.74976	-1.74976	0.353113	0.353113;
	434	     0	0	     0	0;
	437	-3.34981	-3.34981	-0.299358	-0.299358;
	447	     0	0	     0	0;
	450	     0	0	     0	0;
	453	-4.24875	-4.25477	1.63055	1.62817;
	456	     0	0	     0	0;
	460	     0	0	     0	0;
	462	    -0	-0	     0	0;
	467	-1.67005	-1.6724	0.137138	0.13694;
	469	     0	0	     0	0;
	475	0.235422	0.235087	-0.635563	-0.636426;
	485	3.17703	3.17703	-1.01769	-1.01769;
	486	-5.5606e-05	-5.5606e-05	-7.4133e-05	-7.4133e-05;
	491	-0.0356226	-0.0356226	0.0312267	0.0312267;
	493	-0.28711	-0.28711	0.135123	0.135123;
	500	-0.0930337	-0.0930337	0.011871	0.011871;
	505	-0.352949	-0.353433	0.21028	0.209991;
	508	8.3007	8.3007	2.26238	2.26238;
	518	-1.95762	-1.95762	0.267941	0.267941;
	519	     0	0	     0	0;
	520	     0	0	     0	0;
	524	     0	0	     0	0;
	529	-0.428144	-0.428746	0.432643	0.432069;
	530	-0.433009	-0.433648	-1.50457	-1.50673;
	531	0.367129	0.366615	-0.0938597	-0.0939895;
	533	1.62025	1.62025	0.106927	0.106927;
	534	-0.105662	-0.105662	0.0727162	0.0727162;
	535	     0	0	     0	0;
	536	-0.337845	-0.337845	-0.123641	-0.123641;
	541	-0.0964525	-0.0965986	0.0491537	0.0490837;
	544	-0.606846	-0.606846	-0.537386	-0.537386;
	545	-0.694677	-0.694677	0.10676	0.10676;
	550	-0.0992765	-0.0992765	0.0364648	0.0364648;
	552	0.280126	0.280126	0.12527	0.12527;
	554	     0	0	     0	0;
	555	     0	0	     0	0;
	558	0.0073336	0.0073336	-0.00668333	-0.00668333;
	564	0.206379	0.206379	-0.0798	-0.0798;
	567	     0	0	     0	0;
	573	     0	0	     0	0;
	575	0.171419	0.171419	0.0502667	0.0502667;
	578	-0.322676	-0.322676	0.265461	0.265461;
	582	    -0	-0	     0	0;
	583	7.84561e-10	-7.33983e-10	6.83124e-10	-6.77419e-10;
	588	6.08349e-10	-6.48615e-10	7.44569e-10	-7.47899e-10;
	591	0.180224	0.179961	-0.134749	-0.134947;
	598	-0.210058	-0.210058	-0.0426759	-0.0426759;
	601	-1.22451	-1.22611	-0.265453	-0.265839;
	602	-1.24534	-1.24534	-0.162816	-0.162816;
	604	     0	0	     0	0;
	606	7.54324e-10	-6.8146e-10	7.18259e-10	-6.8867e-10;
	609	-0.681468	-0.681468	-0.115194	-0.115194;
	611	-2.50814	-2.50814	-0.718843	-0.718843;
	614	0.352848	0.352848	-0.115709	-0.115709;
	618	-0.286293	-0.286293	0.275311	0.275311;
	619	0.413941	0.413941	-0.0356953	-0.0356953;
	621	0.0417856	0.0417856	0.0406527	0.0406527;
	628	7.6346e-10	-6.86117e-10	6.06216e-10	-6.13556e-10;
	632	-0.273104	-0.27346	0.111097	0.110947;
	633	-2.10498	-2.10797	-0.123311	-0.123468;
	636	     0	0	     0	0;
	649	3.13393	3.12909	-0.974398	-0.975737;
	650	-0.398712	-0.398712	0.22236	0.22236;
	655	     0	0	     0	0;
	658	-0.0245073	-0.0245073	0.007624	0.007624;
	659	6.67436e-10	-6.60459e-10	6.73882e-10	-7.39275e-10;
	661	     0	0	     0	0;
	662	-0.34615	-0.34615	0.435411	0.435411;
...
];

%% RTU injection data (confidence intervals around measurements)
%	bus_i	P_MIN	P_MAX	Q_MIN	Q_MAX	V_MIN	V_MAX
mpc.RTU = [
	1	 0.738117	0.797134295	 0.152338	0.162994898	1.02757829	1.03581002;
	2	-0.749474	-0.698065422	-0.466318	-0.435919292	0.998945553	1.00571346;
	3	 -3.91153	-3.66118675	 -1.01975	-0.954116641	0.988464887	0.994961737;
	4	 -1.38206	-1.28880713	-0.198095	-0.184764835	1.00170237	1.00892642;
	5	 -1.56037	-1.450394	-0.506193	-0.468949498	0.987037706	0.994462255;
	6	 -1.76967	-1.656546	-0.242528	-0.225959779	1.0014029	1.00813644;
	7	-0.475995	-0.441196991	-0.145593	-0.13492873	0.976700773	0.983656036;
	8	 -3.55325	-3.32099312	-0.550615	-0.514886069	1.02100985	1.02786963;
	12	  2.30225	2.46452632	-0.0459858	-0.0430223629	1.00060587	1.00715534;
	13	-0.148673	-0.13782023	-0.0206743	-0.0193131069	1.04224396	1.04971828;
	14	 -1.39064	-1.29361826	-0.254752	-0.238395067	1.02595319	1.03277703;
	17	 0.219175	0.235371742	0.0803852	0.0862002882	1.00756509	1.01449392;
	19	-0.618348	-0.57558872	-0.276881	-0.257454774	1.02667204	1.0338058;
	22	-0.701792	-0.655960995	 -0.12582	-0.116461467	1.00951609	1.01642022;
	26	 -1.66254	-1.55238986	-0.407325	-0.37756327	1.02867348	1.03585019;
	29	 0.334115	0.358298551	 0.140431	0.150063552	1.02986381	1.03668316;
	32	 -1.72601	-1.61768036	-0.564928	-0.528313226	1.00699346	1.01371458;
	33	 0.243804	0.263557271	0.0819966	0.0876240383	1.01503063	1.02187546;
	36	 -1.57864	-1.48267718	-0.512613	-0.479051914	0.980567395	0.98734661;
	38	-0.720874	-0.672605646	-0.446702	-0.415645903	0.9155683	0.921467602;
	39	  2.07525	2.22016376	  0.53384	0.575532287	1.06913963	1.07683879;
	42	 0.154738	0.166900816	-0.0426884	-0.0398198338	0.981904534	0.988727075;
	43	-0.139875	-0.129799192	-0.0506312	-0.0474028576	1.01922475	1.02644208;
	44	-0.109082	-0.101485435	-0.0363808	-0.0337021923	0.98694098	0.994641498;
	45	  1.86638	1.99086677	 0.018374	0.0197447034	1.00827858	1.01517482;
	47	-0.095701	-0.0884925922	-0.0267966	-0.025002099	0.972510561	0.979057693;
	50	-0.166458	-0.153895253	-0.0470535	-0.0436494369	0.980021486	0.986605827;
	51	  1.55165	1.66653906	0.0077575	0.00830167486	1.00738331	1.01534909;
	52	-0.288803	-0.268817106	-0.0413059	-0.0384672342	0.984784834	0.991283745;
	53	 -0.21562	-0.20090095	-0.081624	-0.0763399752	1.01281785	1.01959369;
	54	 0.357647	0.384857758	 0.050933	0.0544183751	1.01730675	1.0246064;
	56	-0.105096	-0.0973141887	-0.0381758	-0.0358874453	1.03986843	1.04688509;
	58	-0.0651398	-0.0608974002	-3.10506e-08	3.01081283e-08	0.977403141	0.985021544;
	59	-0.0299689	-0.0278783112	-0.00932316	-0.00864213155	1.03539072	1.04186019;
	65	 -1.31576	-1.23497245	-0.329091	-0.30573958	0.996058478	1.00290364;
	66	  1.73114	1.85188118	 0.116652	0.125619849	1.03085658	1.03847294;
	68	 0.519287	0.558369547	 0.115705	0.123894398	1.03183846	1.03883254;
	69	 0.520288	0.556512701	 0.114624	0.122927996	1.03189581	1.03861035;
	78	 0.523169	0.563858804	 0.101245	0.109316779	1.02349185	1.03090646;
	79	 0.174693	0.187969209	 0.034246	0.0368322748	1.01282147	1.02052963;
	81	-0.223938	-0.208426316	-0.0310865	-0.028904061	0.987322465	0.993468268;
	83	 -1.23251	-1.15370476	-0.213699	-0.200557818	1.01393906	1.0212323;
	86	   1.4698	1.58739355	 0.316969	0.338793019	1.02029384	1.02705807;
	91	 -1.95315	-1.8060072	 -1.13927	-1.05920894	1.00656868	1.01372857;
	93	 0.178326	0.192518163	-0.0629362	-0.0585840731	0.929996388	0.936088328;
	94	 0.169536	0.183101778	0.0294259	0.0314195575	1.01879457	1.02666347;
	96	 0.477235	0.512062933	0.0511943	0.0550762648	1.03969942	1.0464701;
	97	  0.47883	0.512231511	0.0511524	0.0551836895	1.03984908	1.04687283;
	98	 0.477821	0.512267088	0.0511154	0.0550863966	1.03953115	1.04706213;
	101	  0.47584	0.5130785	 0.051481	0.0548965694	1.0392731	1.04641588;
	102	 0.474471	0.511606355	0.0512212	0.0548302525	1.03942896	1.04712982;
	103	-0.651811	-0.605142195	-0.211977	-0.197024877	0.994055146	1.00029852;
	104	 0.850743	0.907570938	 0.459484	0.492644216	1.04855387	1.05633224;
	105	-0.139459	-0.130291596	-0.153647	-0.142699365	1.13807162	1.14594454;
	106	 -1.30447	-1.2201846	-0.437631	-0.409758766	1.03866202	1.04611907;
	107	 0.655558	0.707572891	 0.100002	0.1065033	1.02442168	1.03198992;
	108	-0.0712091	-0.0669715545	0.0443318	0.0477375038	1.01678185	1.02365131;
	109	-0.162578	-0.151833127	-0.0538541	-0.0500643152	0.994895463	1.00135547;
	111	-0.166146	-0.155963252	-0.0446157	-0.0412886226	1.03670882	1.04429719;
	112	-0.402868	-0.375330665	-0.0631527	-0.05863193	1.01174559	1.01830649;
	114	  0.40805	0.437434479	0.0586331	0.0627637423	1.02679955	1.03468836;
	115	 0.215452	0.232290956	 0.051527	0.0552702778	1.01575503	1.02303391;
	118	 -1.43889	-1.33851013	 -1.41466	-1.32081482	1.00186361	1.00969134;
	121	 0.345895	0.371789477	  0.16277	0.173908084	1.04185629	1.04900567;
	124	-0.0103061	-0.00961725941	-0.00310167	-0.00289038831	1.04251387	1.04989561;
	125	-0.216499	-0.200956281	-0.0310009	-0.0289107913	0.976164348	0.98270821;
	127	-0.223098	-0.206962824	-0.0526229	-0.0492595558	1.01263814	1.01999956;
	128	-0.747068	-0.691862031	-0.297206	-0.278858202	0.989396296	0.995882319;
	132	0.0632109	0.0672257898	0.000515741	0.000553191148	0.992275605	0.999937839;
	133	 0.354414	0.379663508	 0.127074	0.136443087	1.03870122	1.04568232;
	134	  0.44045	0.469129773	0.0549821	0.0591862285	1.04012652	1.0472765;
	136	  0.48897	0.525338216	0.0318909	0.0343147456	1.04616481	1.05378589;
	137	-0.181831	-0.169943098	-0.0650223	-0.0610544751	1.03323544	1.04086874;
	138	-0.343699	-0.320585107	-0.123841	-0.115897386	0.995617437	1.00168534;
	139	-0.419768	-0.390575632	-0.258118	-0.240460263	0.979185944	0.98641675;
	140	 -1.99501	-1.86083153	-0.552153	-0.513289487	1.00531584	1.0120991;
	141	-0.937974	-0.871579564	-0.263311	-0.245573286	1.07584578	1.08384988;
	142	  -1.8221	-1.7076085	  0.57081	0.608277908	1.00624538	1.01409657;
	143	-0.373395	-0.348331555	-0.231846	-0.214628011	1.0389143	1.04685693;
	144	 0.170915	0.183917396	0.0713768	0.076846201	1.0309352	1.03810439;
	145	  5.93285	6.33305944	  2.20027	2.35572597	1.03719167	1.04416558;
	148	 -1.49344	-1.39319578	 -1.27458	-1.19225502	1.01015283	1.01726828;
	150	-3.72776e-08	3.5602846e-08	-0.0866518	-0.0813346575	1.0316237	1.03952326;
	151	  1.96057	2.10523616	 0.292507	0.31603555	1.0197644	1.02639253;
	152	-0.534019	-0.495589731	0.0847511	0.0907944098	0.952921829	0.959801395;
	153	 0.347074	0.375327748	0.0442631	0.0474078729	1.02404099	1.03125156;
	154	   7.3967	7.94508858	0.0742372	0.0790358376	1.04849397	1.05645122;
	158	 -3.13985	-2.94342611	-0.827107	-0.770798847	1.02737271	1.03456701;
	160	 -1.41142	-1.32282029	-0.201442	-0.188654648	1.00137382	1.00852146;
	161	 0.474706	0.510844872	0.0882106	0.0948900434	1.03100215	1.03823843;
	162	 0.474797	0.512701168	0.0884482	0.0948677803	1.03109588	1.03840208;
	164	-0.631746	-0.586398374	-0.373265	-0.348225943	1.03837265	1.04593505;
	165	 0.406999	0.439705195	0.0581602	0.0624341162	1.02757899	1.03446844;
	168	-0.577605	-0.536638899	-0.081894	-0.0762188897	0.979732502	0.986400313;
	174	-0.403051	-0.37701369	-0.113739	-0.105740715	0.979447267	0.986371072;
	179	  0.91839	0.978734326	 0.079634	0.0853843097	1.0197473	1.02708599;
	180	-0.178361	-0.166052064	-0.0587383	-0.0551751305	0.936037391	0.941784439;
	184	-0.244692	-0.229683286	-0.131442	-0.12230832	1.01613747	1.02337087;
	185	 -1.25656	-1.17859505	-0.0766816	-0.0711962222	1.00659715	1.01331153;
	187	-0.490485	-0.456218049	-0.169123	-0.158804788	1.0230191	1.03077723;
	191	-0.560417	-0.523298423	-0.0803899	-0.0749958988	0.970473102	0.97762567;
	192	 -1.35318	-1.26088003	-0.880882	-0.822330405	1.00416235	1.01085387;
	193	-0.0818911	-0.0760321834	-0.0270118	-0.025006386	0.979500535	0.986596113;
	195	 0.725553	0.781014782	-0.0810575	-0.075392858	1.05545723	1.0627533;
	197	  2.36371	2.54525553	0.0143432	0.0154196658	1.00223788	1.00849262;
	198	-0.424437	-0.396412992	-0.147902	-0.137386147	0.999027797	1.00664893;
	200	  -1.0411	-0.968828662	-0.508823	-0.474003196	0.979056591	0.98520643;
	205	-0.0289169	-0.0271113837	 -2.73078	-2.54223693	1.02847266	1.03641378;
	210	 -1.65394	-1.54209937	-0.0342302	-0.031945521	1.03637573	1.0443587;
	213	-0.127449	-0.118415412	-0.0403476	-0.0375263331	1.04448929	1.05134207;
	214	 -1.36639	-1.26986658	-0.253042	-0.2349227	1.0251968	1.03274028;
	220	 0.947615	1.0067673	 0.381809	0.407521072	1.05168437	1.05950257;
	222	 0.937747	1.01145659	 0.402769	0.433898009	1.0477771	1.05495671;
	224	  0.94362	1.00665781	 0.405185	0.433071304	1.0479109	1.0544636;
	229	 0.203137	0.216852373	0.0943581	0.101209286	1.03109547	1.03778565;
	231	-0.823376	-0.767002904	-0.116426	-0.109341459	1.00690369	1.01425459;
	234	  5.73839	6.2091293	   3.1467	3.37743471	1.03161654	1.03874281;
	235	  -1.5279	-1.42895906	-0.337231	-0.3162783	1.04381151	1.05094762;
	237	 -0.27658	-0.257647491	0.0355278	0.0383483766	1.07623273	1.0842699;
	240	-0.172449	-0.16155313	-0.0248151	-0.0232134711	0.991882837	0.998495606;
	241	  5.79519	6.2263124	  1.58957	1.69650982	1.0338631	1.04145479;
	243	 0.312905	0.334225537	 0.176058	0.189027053	1.05034034	1.05744364;
	245	 -1.15368	-1.07933935	-0.113024	-0.105593772	1.00289499	1.00931636;
	246	 -0.93119	-0.869443682	 0.048826	0.0523965362	1.03471811	1.04191306;
	248	 0.255625	0.271726551	0.0859454	0.0915700318	1.0224999	1.03013301;
	249	-0.423846	-0.394596475	 0.442221	0.474623509	1.05310676	1.05998868;
	251	-0.102144	-0.0954685587	-0.0330809	-0.0308867937	0.982910739	0.989148856;
	252	0.00666821	0.00713299376	0.0525706	0.0565778448	1.04705832	1.05399892;
	253	-0.572211	-0.536387349	-0.0872027	-0.0807765963	1.01197702	1.01854034;
	254	-0.984188	-0.911394813	-0.375809	-0.350803751	0.959500313	0.966320419;
	257	 -2.17777	-2.02998544	 -1.64363	-1.53247099	1.01423449	1.02142282;
	258	0.0795032	0.0852365776	-0.026504	-0.0248190805	0.952263613	0.958982912;
	259	 0.373447	0.396978825	 0.064782	0.0697916509	1.03081967	1.037999;
	260	-0.200899	-0.187275303	 -0.27012	-0.251135697	1.03316517	1.04044863;
	263	-0.215916	-0.200850686	-0.030936	-0.0289482213	1.00450163	1.01131436;
	265	  -0.5919	-0.551431773	-0.0207772	-0.0192618536	0.976522322	0.98316723;
	267	-0.382778	-0.354932418	 -0.14407	-0.134817825	1.04903868	1.05575938;
	268	 0.144967	0.154962361	0.0496295	0.0528684096	0.988984161	0.995792168;
	269	-0.0954625	-0.0891073455	-0.0619251	-0.0579812865	0.992044223	0.999585977;
	270	 0.178258	0.189936412	-0.0104089	-0.00973230058	0.999448911	1.00725381;
	271	  6.02018	6.46422862	  1.85556	2.00182589	1.04951	1.05730032;
	274	  6.07043	6.49663773	  1.78775	1.90951368	1.04747363	1.05453291;
	275	  6.01851	6.50797739	  1.77916	1.91010982	1.0471098	1.05474934;
	277	 -1.24063	-1.15351734	-0.038286	-0.0355877401	1.01535689	1.02258247;
	278	  6.07552	6.46622417	 0.279318	0.298708511	0.957313005	0.964296179;
	283	0.0771516	0.0824361909	0.0070435	0.00762016312	0.996720782	1.00459437;
	287	-0.898795	-0.839916496	 -0.29254	-0.273106217	0.992750234	0.999153433;
	289	 0.356331	0.382708705	  0.11756	0.126436999	1.03712098	1.04375108;
	291	 -1.14618	-1.06908658	-0.337617	-0.315029888	1.00698169	1.0139202;
	292	-0.189126	-0.174889178	-0.0268719	-0.0250368592	0.993114006	1.00024568;
	294	 0.897104	0.95808818	0.0305888	0.0328935865	0.995267868	1.00256243;
	295	 -0.47649	-0.445532485	-0.187612	-0.175650521	1.02607591	1.03388081;
	296	 0.202765	0.216594914	0.00676775	0.00724653248	0.98601975	0.992205534;
	299	  1.53257	1.64972786	 0.340842	0.364487793	0.989654439	0.997406903;
	300	 -3.32861	-3.11072429	-0.873663	-0.812787114	1.01611755	1.02321068;
	301	-0.441752	-0.410611357	-0.0851055	-0.0793310824	1.0289907	1.03690483;
	302	-0.346433	-0.324079086	-0.103329	-0.0968158756	1.01219558	1.01974703;
	305	 0.267484	0.286921934	0.0182135	0.0195344736	1.02687998	1.03389782;
	306	 0.268949	0.286998457	 0.018178	0.0195720366	1.02709685	1.03435906;
	307	 0.169867	0.182266509	0.0671097	0.0715293494	1.04560998	1.05290651;
	309	 0.310968	0.331953651	0.0353974	0.0379347971	1.05233286	1.05976751;
	311	 0.308603	0.33299681	0.0352233	0.0377498894	1.05250483	1.05982694;
	312	 0.308737	0.33228578	0.0353192	0.0378172176	1.05233487	1.06035882;
	314	-0.988856	-0.920081523	-0.255028	-0.236486853	1.01269249	1.02066095;
	315	 0.019806	0.0213630861	0.00598748	0.006423409	1.01719274	1.02450041;
	317	 -3.52457	-3.27005563	-0.971039	-0.90652137	1.04622227	1.05409684;
	319	 -1.61109	-1.49860532	-0.566285	-0.528464588	1.02296368	1.0300354;
	323	  4.02671	4.32199731	  1.02601	1.09440506	1.01318994	1.02047791;
	324	 0.048294	0.0516233517	0.0182746	0.0195437335	1.02098412	1.02759876;
	325	0.0464868	0.049468392	-0.00124988	-0.00116233364	0.992824888	1.00008932;
	327	 -1.82458	-1.70150221	 -0.21443	-0.201517394	1.01767135	1.025087;
	328	 0.524458	0.564447726	 0.267805	0.287461255	1.01986038	1.0266971;
	331	 0.265319	0.286092489	0.0373051	0.0398913402	1.00245473	1.00991629;
	332	0.0193268	0.0206917583	-3.05185e-05	-2.85051329e-05	0.992799769	1.00068967;
	335	-0.150858	-0.141479459	-0.0496708	-0.0462424256	0.993667641	1.00065098;
	340	-0.468149	-0.43588424	0.0212651	0.022705881	1.01461003	1.02154384;
	342	 0.225703	0.243604852	-0.591795	-0.552801371	1.0608342	1.06815875;
	345	  3.22357	3.46355076	 0.549184	0.588854658	1.02678119	1.03373614;
	352	-0.476764	-0.443392884	-0.0721485	-0.0676342754	1.00993991	1.01642335;
	354	 0.351254	0.376759852	 0.071835	0.0771876566	1.02563793	1.03316311;
	358	  1.59531	1.7146426	  1.02711	1.10824296	1.04746214	1.05473091;
	359	  8.43917	9.04621321	  3.15519	3.37507866	1.0397629	1.04758998;
	361	 0.814223	0.867207003	 0.163036	0.175835052	1.02514705	1.03232008;
	362	 0.815352	0.871931981	 0.163259	0.175570442	1.02480104	1.0322607;
	363	 0.812995	0.868489489	 0.162795	0.175347549	1.02494263	1.03203673;
	364	0.0505084	0.0543632138	0.00203686	0.00218037979	1.00238399	1.00877081;
	366	 -1.73406	-1.61498008	 -0.18851	-0.175756535	1.05224839	1.06013497;
	368	 0.808567	0.868632145	 0.163029	0.17584562	1.0252362	1.03260375;
	369	 0.810402	0.873909491	 0.162518	0.175026483	1.02455653	1.03182656;
	371	-0.459028	-0.428672356	-0.153078	-0.142627583	0.974457228	0.980901054;
	372	 -1.36987	-1.26947552	-0.321701	-0.299694654	1.04132674	1.04836557;
	374	 -2.33038	-2.15872094	-0.761988	-0.709866142	1.02157646	1.02928306;
	376	 -1.32903	-1.24509636	-0.762001	-0.708758526	1.02736399	1.03452716;
	380	 -1.22796	-1.14255296	-0.174917	-0.163668463	0.983801783	0.990637933;
	382	 0.986808	1.05357889	0.0911544	0.0976088462	0.98741882	0.993978402;
	383	 0.981648	1.06313654	 0.282695	0.302849239	1.00911965	1.01592027;
	392	0.00995717	0.0106911418	0.000723023	0.000768958663	1.02698278	1.0346251;
	394	 0.365428	0.392295126	0.0898665	0.0969687918	1.02883448	1.03630835;
	395	 0.360636	0.386234592	0.0426475	0.0453787408	1.02470455	1.03184131;
	399	 -1.65687	-1.54633871	 -0.10965	-0.102783831	1.00959189	1.01694403;
...
];

%% generator data
%	bus	Pg	Qg	Qmax	Qmin	Vg	mBase	status	Pmax	Pmin	Pc1	Pc2	Qc1min	Qc1max	Qc2min	Qc2max	ramp_agc	ramp_10	ramp_30	ramp_q	apf
mpc.gen = [
	1	76.8681899	15.8067668	40	-10	1.031695	100	1	100	28.22	0	0	0	0	0	0	0	0	0	0	0;
	12	238.58	-4.43875519	210	-50	1.004054	100	1	500	100	0	0	0	0	0	0	0	0	0	0	0;
	18	38.02	10.8214753	30	-10	1.043087	100	1	100	25.35	0	0	0	0	0	0	0	0	0	0	0;
	29	34.78	14.5577598	30	-10	1.033319	100	1	100	23.19	0	0	0	0	0	0	0	0	0	0	0;
	33	25.35	8.50377885	40	-10	1.018631	100	1	100	16.9	0	0	0	0	0	0	0	0	0	0	0;
	39	214.6	55.5702442	210	-50	1.073284	100	1	500	100	0	0	0	0	0	0	0	0	0	0	0;
	42	16.1	-4.1190704	20	-20	0.985213	100	1	100	10.73	0	0	0	0	0	0	0	0	0	0	0;
	45	192.55	1.90781464	160	-40	1.012099	100	1	400	100	0	0	0	0	0	0	0	0	0	0	0;
	51	161	0.801075287	90	-90	1.011416	100	1	400	100	0	0	0	0	0	0	0	0	0	0	0;
	54	37.08	5.2674572	30	-10	1.021005	100	1	100	24.72	0	0	0	0	0	0	0	0	0	0	0;
	62	617.7	178.49332	520	-120	1.058268	100	1	1300	400	0	0	0	0	0	0	0	0	0	0	0;
	63	617.7	178.49332	520	-120	1.058268	100	1	1300	400	0	0	0	0	0	0	0	0	0	0	0;
	66	179.12	12.1457371	160	-40	1.034768	100	1	400	100	0	0	0	0	0	0	0	0	0	0	0;
	68	53.72	11.9307562	40	-10	1.035023	100	1	200	35.81	0	0	0	0	0	0	0	0	0	0	0;
	69	53.72	11.9307562	40	-10	1.035023	100	1	200	35.81	0	0	0	0	0	0	0	0	0	0	0;
	77	24.65	6.99849377	30	-10	1.038344	100	1	100	16.43	0	0	0	0	0	0	0	0	0	0	0;
	78	54.48	10.5295097	30	-10	1.027383	100	1	200	36.32	0	0	0	0	0	0	0	0	0	0	0;
	79	18.13	3.54569961	30	-10	1.016716	100	1	100	12.09	0	0	0	0	0	0	0	0	0	0	0;
	86	152.7	32.8781101	80	-20	1.023881	100	1	400	100	0	0	0	0	0	0	0	0	0	0	0;
	94	17.64	3.04867453	20	-10	1.022611	100	1	100	11.76	0	0	0	0	0	0	0	0	0	0	0;
	96	49.42	5.31980229	40	-10	1.043225	100	1	100	32.95	0	0	0	0	0	0	0	0	0	0	0;
	97	49.42	5.31980229	40	-10	1.043225	100	1	100	32.95	0	0	0	0	0	0	0	0	0	0	0;
	98	49.42	5.31980229	40	-10	1.043225	100	1	100	32.95	0	0	0	0	0	0	0	0	0	0	0;
	99	23.85	7.2052795	40	-10	1.031885	100	1	100	15.9	0	0	0	0	0	0	0	0	0	0	0;
	100	23.85	7.2052795	40	-10	1.031885	100	1	100	15.9	0	0	0	0	0	0	0	0	0	0	0;
	101	49.42	5.31980229	40	-10	1.043225	100	1	100	32.95	0	0	0	0	0	0	0	0	0	0	0;
	102	49.42	5.31980229	40	-10	1.043225	100	1	100	32.95	0	0	0	0	0	0	0	0	0	0	0;
	104	87.95	47.4231777	60	-20	1.052257	100	1	200	58.63	0	0	0	0	0	0	0	0	0	0	0;
	107	68.26	10.3101832	60	-20	1.028153	100	1	200	45.51	0	0	0	0	0	0	0	0	0	0	0;
	110	91.47	8.92652142	60	-20	1.051233	100	1	200	60.98	0	0	0	0	0	0	0	0	0	0	0;
	114	42.35	6.05510805	40	-10	1.030832	100	1	100	28.23	0	0	0	0	0	0	0	0	0	0	0;
	115	22.35	5.32828152	30	-10	1.019	100	1	100	14.9	0	0	0	0	0	0	0	0	0	0	0;
	121	36.03	16.79877	30	-10	1.045359	100	1	100	24.02	0	0	0	0	0	0	0	0	0	0	0;
	132	6.52	0.0533579275	10	-10	0.996117	100	1	100	4.35	0	0	0	0	0	0	0	0	0	0	0;
	133	36.77	13.1645988	30	-10	1.042317	100	1	100	24.51	0	0	0	0	0	0	0	0	0	0	0;
	134	45.54	5.69283938	40	-10	1.044129	100	1	100	30.36	0	0	0	0	0	0	0	0	0	0	0;
	135	42.35	6.05510805	40	-10	1.030832	100	1	100	28.23	0	0	0	0	0	0	0	0	0	0	0;
	136	50.83	3.30450145	60	-20	1.049674	100	1	200	33.89	0	0	0	0	0	0	0	0	0	0	0;
	144	17.8	7.4228966	30	-10	1.034631	100	1	100	11.87	0	0	0	0	0	0	0	0	0	0	0;
	145	612.01	227.465743	520	-120	1.040587	100	1	1300	400	0	0	0	0	0	0	0	0	0	0	0;
	146	612.04	260.134844	520	-120	1.044313	100	1	1300	400	0	0	0	0	0	0	0	0	0	0	0;
	147	612.04	260.134844	520	-120	1.044313	100	1	1300	400	0	0	0	0	0	0	0	0	0	0	0;
	151	204	30.4382792	150	-60	1.023215	100	1	500	100	0	0	0	0	0	0	0	0	0	0	0;
	153	36.13	4.60248426	30	-10	1.027348	100	1	100	24.09	0	0	0	0	0	0	0	0	0	0	0;
	154	766.83	7.67163996	520	-120	1.05252	100	1	1600	500	0	0	0	0	0	0	0	0	0	0	0;
	156	49.34	9.15154211	40	-10	1.034597	100	1	100	32.89	0	0	0	0	0	0	0	0	0	0	0;
	161	49.34	9.15154211	40	-10	1.034597	100	1	100	32.89	0	0	0	0	0	0	0	0	0	0	0;
	162	49.34	9.15154211	40	-10	1.034597	100	1	100	32.89	0	0	0	0	0	0	0	0	0	0	0;
	165	42.35	6.05510805	40	-10	1.030832	100	1	100	28.23	0	0	0	0	0	0	0	0	0	0	0;
	179	95.02	8.24081673	60	-20	1.023144	100	1	200	63.35	0	0	0	0	0	0	0	0	0	0	0;
	182	34.96	12.8874203	30	-10	1.054937	100	1	100	23.31	0	0	0	0	0	0	0	0	0	0	0;
	196	81.07	20.2438239	60	-20	1.021915	100	1	200	54.05	0	0	0	0	0	0	0	0	0	0	0;
	197	245.73	1.48717255	160	-40	1.005341	100	1	500	100	0	0	0	0	0	0	0	0	0	0	0;
	207	27.95	3.74662544	30	-10	1.016461	100	1	100	18.63	0	0	0	0	0	0	0	0	0	0	0;
	220	97.72	39.4503756	60	-20	1.055654	100	1	200	65.15	0	0	0	0	0	0	0	0	0	0	0;
	221	97.72	39.4503756	60	-20	1.055654	100	1	200	65.15	0	0	0	0	0	0	0	0	0	0	0;
	222	97.66	41.9460848	60	-20	1.051105	100	1	200	65.11	0	0	0	0	0	0	0	0	0	0	0;
	223	97.72	39.4503756	60	-20	1.055654	100	1	200	65.15	0	0	0	0	0	0	0	0	0	0	0;
	224	97.66	41.9460848	60	-20	1.051105	100	1	200	65.11	0	0	0	0	0	0	0	0	0	0	0;
	225	97.66	41.9460848	60	-20	1.051105	100	1	200	65.11	0	0	0	0	0	0	0	0	0	0	0;
	229	21.03	9.7970796	30	-10	1.034441	100	1	100	14.02	0	0	0	0	0	0	0	0	0	0	0;
	241	601.87	164.083017	520	-120	1.037622	100	1	1300	400	0	0	0	0	0	0	0	0	0	0	0;
	243	32.43	18.2141515	30	-10	1.053647	100	1	100	21.62	0	0	0	0	0	0	0	0	0	0	0;
	248	26.38	8.86773662	30	-10	1.026279	100	1	100	17.59	0	0	0	0	0	0	0	0	0	0	0;
	250	192.55	1.90781464	160	-40	1.012099	100	1	400	100	0	0	0	0	0	0	0	0	0	0	0;
	258	8.2	-2.56185016	10	-10	0.955439	100	1	100	5.47	0	0	0	0	0	0	0	0	0	0	0;
	259	38.51	6.71937233	30	-10	1.03425	100	1	100	25.67	0	0	0	0	0	0	0	0	0	0	0;
	266	28.48	6.82465277	30	-10	1.005915	100	1	100	18.99	0	0	0	0	0	0	0	0	0	0	0;
	270	18.4	-1.00982297	20	-20	1.003342	100	1	100	12.27	0	0	0	0	0	0	0	0	0	0	0;
	271	626.63	192.5338	520	-120	1.053159	100	1	1300	400	0	0	0	0	0	0	0	0	0	0	0;
	273	626.63	186.84616	520	-120	1.051456	100	1	1300	400	0	0	0	0	0	0	0	0	0	0	0;
	274	626.64	185.313116	520	-120	1.051088	100	1	1300	400	0	0	0	0	0	0	0	0	0	0	0;
	275	626.64	185.313116	520	-120	1.051088	100	1	1300	400	0	0	0	0	0	0	0	0	0	0	0;
	276	626.64	183.793643	520	-120	1.050379	100	1	1300	400	0	0	0	0	0	0	0	0	0	0	0;
	278	627	28.9053886	320	-190	0.960771	100	1	1300	400	0	0	0	0	0	0	0	0	0	0	0;
	283	8	0.732883638	10	-10	1.000621	100	1	100	5.33	0	0	0	0	0	0	0	0	0	0	0;
	289	36.9	12.2447727	30	-10	1.040289	100	1	100	24.6	0	0	0	0	0	0	0	0	0	0	0;
	294	92.8	3.17309781	50	-50	0.999187	100	1	200	61.87	0	0	0	0	0	0	0	0	0	0	0;
	296	21	0.700934849	10	-10	0.989117	100	1	100	14	0	0	0	0	0	0	0	0	0	0	0;
	299	158.9	35.3381853	100	-30	0.993468	100	1	400	100	0	0	0	0	0	0	0	0	0	0	0;
	304	39.98	8.67445289	30	-10	1.037997	100	1	100	26.65	0	0	0	0	0	0	0	0	0	0	0;
	305	27.73	1.88216485	30	-10	1.030407	100	1	100	18.49	0	0	0	0	0	0	0	0	0	0	0;
	306	27.73	1.88216485	30	-10	1.030407	100	1	100	18.49	0	0	0	0	0	0	0	0	0	0	0;
	307	17.66	6.93746422	30	-10	1.049321	100	1	100	11.77	0	0	0	0	0	0	0	0	0	0	0;
	308	17.66	6.93746422	30	-10	1.049321	100	1	100	11.77	0	0	0	0	0	0	0	0	0	0	0;
	309	32.08	3.65650276	30	-10	1.05655	100	1	100	21.39	0	0	0	0	0	0	0	0	0	0	0;
	310	32.08	3.65650276	30	-10	1.05655	100	1	100	21.39	0	0	0	0	0	0	0	0	0	0	0;
	311	32.08	3.65650276	30	-10	1.05655	100	1	100	21.39	0	0	0	0	0	0	0	0	0	0	0;
	312	32.08	3.65650276	30	-10	1.05655	100	1	100	21.39	0	0	0	0	0	0	0	0	0	0	0;
	315	2.06	0.622780051	10	-10	1.021202	100	1	100	1.37	0	0	0	0	0	0	0	0	0	0	0;
	323	419.13	106.129861	520	-120	1.016993	100	1	900	200	0	0	0	0	0	0	0	0	0	0	0;
	324	5	1.88800842	10	-10	1.024179	100	1	100	3.33	0	0	0	0	0	0	0	0	0	0	0;
	325	4.8	-0.120229267	10	-10	0.996355	100	1	100	3.2	0	0	0	0	0	0	0	0	0	0	0;
	328	54.54	27.6997524	40	-10	1.023168	100	1	200	36.36	0	0	0	0	0	0	0	0	0	0	0;
	331	27.62	3.85657005	30	-20	1.006233	100	1	100	18.41	0	0	0	0	0	0	0	0	0	0	0;
	332	2	-0.00295404489	10	-10	0.996766	100	1	100	1.33	0	0	0	0	0	0	0	0	0	0	0;
	336	16.08	0.0391283104	10	-10	1.010862	100	1	100	10.72	0	0	0	0	0	0	0	0	0	0	0;
	338	16.08	-0.172734187	10	-10	1.00038	100	1	100	10.72	0	0	0	0	0	0	0	0	0	0	0;
	345	333.1	57.0548425	210	-50	1.030395	100	1	700	200	0	0	0	0	0	0	0	0	0	0	0;
	346	333.1	57.0548425	210	-50	1.030395	100	1	700	200	0	0	0	0	0	0	0	0	0	0	0;
	351	167.59	38.8056169	210	-50	1.024484	100	1	400	100	0	0	0	0	0	0	0	0	0	0	0;
	354	36.42	7.47831612	30	-10	1.029166	100	1	100	24.28	0	0	0	0	0	0	0	0	0	0	0;
	358	165.24	106.902869	210	-50	1.050725	100	1	400	100	0	0	0	0	0	0	0	0	0	0	0;
	360	84.12	16.9193792	60	-20	1.028641	100	1	200	56.08	0	0	0	0	0	0	0	0	0	0	0;
	361	84.12	16.9193792	60	-20	1.028641	100	1	200	56.08	0	0	0	0	0	0	0	0	0	0	0;
	362	84.12	16.9193792	60	-20	1.028641	100	1	200	56.08	0	0	0	0	0	0	0	0	0	0	0;
	363	84.12	16.9193792	60	-20	1.028641	100	1	200	56.08	0	0	0	0	0	0	0	0	0	0	0;
	364	5.25	0.211495317	10	-10	1.00564	100	1	100	3.5	0	0	0	0	0	0	0	0	0	0	0;
	365	95.2	35.9114273	110	-30	0.997585	100	1	200	63.47	0	0	0	0	0	0	0	0	0	0	0;
	368	84.12	16.9193792	60	-20	1.028641	100	1	200	56.08	0	0	0	0	0	0	0	0	0	0	0;
	369	84.12	16.9193792	60	-20	1.028641	100	1	200	56.08	0	0	0	0	0	0	0	0	0	0	0;
	382	102.03	9.45181885	60	-20	0.990596	100	1	300	68.02	0	0	0	0	0	0	0	0	0	0	0;
	383	102.24	29.2099366	60	-20	1.012482	100	1	300	68.16	0	0	0	0	0	0	0	0	0	0	0;
	392	1.03	0.0746401345	10	-10	1.030636	100	1	100	0.69	0	0	0	0	0	0	0	0	0	0	0;
	394	37.9	9.33252547	30	-10	1.0326	100	1	100	25.27	0	0	0	0	0	0	0	0	0	0	0;
	395	37.23	4.40312919	30	-10	1.028283	100	1	100	24.82	0	0	0	0	0	0	0	0	0	0	0;
	396	85.28	19.545674	60	-20	1.029542	100	1	200	56.85	0	0	0	0	0	0	0	0	0	0	0;
	400	94.5	8.91770782	50	-40	0.979015	100	1	200	63	0	0	0	0	0	0	0	0	0	0	0;
	405	33.64	6.77358876	30	-10	1.00773	100	1	100	22.43	0	0	0	0	0	0	0	0	0	0	0;
	406	33.64	6.77358876	30	-10	1.00773	100	1	100	22.43	0	0	0	0	0	0	0	0	0	0	0;
	408	34.92	9.61157771	30	-10	1.043492	100	1	100	23.28	0	0	0	0	0	0	0	0	0	0	0;
	423	0.99	-0.0532335986	10	-10	1.015919	100	1	100	0.66	0	0	0	0	0	0	0	0	0	0	0;
	432	4.5	0.464412657	10	-10	1.016602	100	1	100	3	0	0	0	0	0	0	0	0	0	0	0;
	433	30.04	8.00298914	30	-10	1.011489	100	1	100	20.03	0	0	0	0	0	0	0	0	0	0	0;
	438	18.13	3.54569961	30	-10	1.016716	100	1	100	12.09	0	0	0	0	0	0	0	0	0	0	0;
	442	31.35	11.1806309	30	-10	1.043357	100	1	100	20.9	0	0	0	0	0	0	0	0	0	0	0;
	448	25.22	6.24647078	20	-10	1.038795	100	1	100	16.81	0	0	0	0	0	0	0	0	0	0	0;
	454	8.35	-1.92800943	10	-10	0.973833	100	1	100	5.57	0	0	0	0	0	0	0	0	0	0	0;
	458	31.28	-0.928255675	30	-10	1.009892	100	1	100	20.85	0	0	0	0	0	0	0	0	0	0	0;
	463	-19.98	295.416803	100000	-100000	1.126642	100	1	100	-26.64	0	0	0	0	0	0	0	0	0	0	0;
	470	74.8	36.0787522	60	-20	1.046905	100	1	200	49.87	0	0	0	0	0	0	0	0	0	0	0;
	476	214.05	80.1863478	210	-50	1.029484	100	1	500	100	0	0	0	0	0	0	0	0	0	0	0;
	477	38.02	10.8214753	30	-10	1.043087	100	1	100	25.35	0	0	0	0	0	0	0	0	0	0	0;
	480	89.2	18.2439606	60	-20	1.033425	100	1	200	59.47	0	0	0	0	0	0	0	0	0	0	0;
	481	89.2	18.2439606	60	-20	1.033425	100	1	200	59.47	0	0	0	0	0	0	0	0	0	0	0;
	482	89.2	18.2439606	60	-20	1.033425	100	1	200	59.47	0	0	0	0	0	0	0	0	0	0	0;
	483	89.2	18.2439606	60	-20	1.033425	100	1	200	59.47	0	0	0	0	0	0	0	0	0	0	0;
	485	325.03	138.973426	210	-50	1.059619	100	1	700	200	0	0	0	0	0	0	0	0	0	0	0;
	492	273.28	113.299281	210	-50	1.041985	100	1	600	100	0	0	0	0	0	0	0	0	0	0	0;
	496	64.28	30.2493443	60	-20	1.00876	100	1	200	42.85	0	0	0	0	0	0	0	0	0	0	0;
	508	857.64	269.117285	520	-120	1.044776	100	1	1800	500	0	0	0	0	0	0	0	0	0	0	0;
	509	857.69	275.679033	520	-120	1.044388	100	1	1800	500	0	0	0	0	0	0	0	0	0	0	0;
	510	857.66	264.03108	520	-120	1.044096	100	1	1800	500	0	0	0	0	0	0	0	0	0	0	0;
	514	857.64	266.531828	520	-120	1.044511	100	1	1800	500	0	0	0	0	0	0	0	0	0	0	0;
	516	32.57	7.09969814	30	-10	1.041748	100	1	100	21.71	0	0	0	0	0	0	0	0	0	0	0;
	528	23.66	2.40464983	30	-10	1.020703	100	1	100	15.77	0	0	0	0	0	0	0	0	0	0	0;
	531	38.79	5.82857305	30	-10	1.035838	100	1	100	25.86	0	0	0	0	0	0	0	0	0	0	0;
	532	258.95	66.4214907	210	-50	1.036699	100	1	600	100	0	0	0	0	0	0	0	0	0	0	0;
	533	164.92	6.19807024	160	-40	1.016377	100	1	400	100	0	0	0	0	0	0	0	0	0	0	0;
	539	152	33.2923416	90	-40	0.993492	100	1	400	100	0	0	0	0	0	0	0	0	0	0	0;
	552	30.6	-1.4654593	20	-20	0.99834	100	1	100	20.4	0	0	0	0	0	0	0	0	0	0	0;
	559	51.5	-7.53880962	30	-30	0.954584	100	1	200	34.33	0	0	0	0	0	0	0	0	0	0	0;
	564	21.77	6.3208578	30	-10	1.024499	100	1	100	14.51	0	0	0	0	0	0	0	0	0	0	0;
	572	7	0.882810512	10	-10	1.004314	100	1	100	4.67	0	0	0	0	0	0	0	0	0	0	0;
	575	18.09	1.62401387	30	-10	1.016739	100	1	100	12.06	0	0	0	0	0	0	0	0	0	0	0;
	576	18.09	1.62401387	30	-10	1.016739	100	1	100	12.06	0	0	0	0	0	0	0	0	0	0	0;
	577	18.09	1.62401387	30	-10	1.016739	100	1	100	12.06	0	0	0	0	0	0	0	0	0	0	0;
	581	18.09	1.62401387	30	-10	1.016739	100	1	100	12.06	0	0	0	0	0	0	0	0	0	0	0;
	585	72.61	28.5123589	60	-20	1.041629	100	1	200	48.41	0	0	0	0	0	0	0	0	0	0	0;
	589	13.38	0.701795708	10	-10	1.00755	100	1	100	8.92	0	0	0	0	0	0	0	0	0	0	0;
	610	31.95	15.2382274	30	-10	1.019723	100	1	100	21.3	0	0	0	0	0	0	0	0	0	0	0;
	614	34.81	16.0171943	40	-10	1.031902	100	1	100	23.21	0	0	0	0	0	0	0	0	0	0	0;
	615	34.81	16.0171943	40	-10	1.031902	100	1	100	23.21	0	0	0	0	0	0	0	0	0	0	0;
	619	42.5	5.51689661	40	-10	1.031502	100	1	100	28.33	0	0	0	0	0	0	0	0	0	0	0;
	621	5.8	-0.784376713	10	-10	1.003942	100	1	100	3.87	0	0	0	0	0	0	0	0	0	0	0;
	623	36.03	16.79877	30	-10	1.045359	100	1	100	24.02	0	0	0	0	0	0	0	0	0	0	0;
	626	43.29	18.665139	60	-20	1.035771	100	1	100	28.86	0	0	0	0	0	0	0	0	0	0	0;
	635	0.13	-0.103011114	10	-10	1.023511	100	1	100	0.09	0	0	0	0	0	0	0	0	0	0	0;
	637	25.22	6.7751074	30	-10	1.04616	100	1	100	16.81	0	0	0	0	0	0	0	0	0	0	0;
	646	333.1	57.0548425	210	-50	1.030395	100	1	700	200	0	0	0	0	0	0	0	0	0	0	0;
	648	322.05	15.0981378	210	-50	1.007781	100	1	700	200	0	0	0	0	0	0	0	0	0	0	0;
	649	333.1	57.0548425	210	-50	1.030395	100	1	700	200	0	0	0	0	0	0	0	0	0	0	0;
	651	188.27	-21.968849	210	-50	1.028351	100	1	400	100	0	0	0	0	0	0	0	0	0	0	0;
	652	188.27	-21.968849	210	-50	1.028351	100	1	400	100	0	0	0	0	0	0	0	0	0	0	0;
	654	92.4	2.72002782	60	-20	1.014507	100	1	200	61.6	0	0	0	0	0	0	0	0	0	0	0;
	660	33.21	5.47364281	30	-10	1.022689	100	1	100	22.14	0	0	0	0	0	0	0	0	0	0	0;
	666	31.3	-0.820887154	30	-10	1.018739	100	1	100	20.87	0	0	0	0	0	0	0	0	0	0	0;
	671	25.2	-0.3182549	20	-10	0.999061	100	1	100	16.8	0	0	0	0	0	0	0	0	0	0	0;
	676	274.65	30.6579575	160	-40	1.018066	100	1	600	100	0	0	0	0	0	0	0	0	0	0	0;
	681	84.68	6.20911809	60	-20	1.00657	100	1	200	56.45	0	0	0	0	0	0	0	0	0	0	0;
	684	68.89	19.0469338	60	-20	1.035618	100	1	200	45.93	0	0	0	0	0	0	0	0	0	0	0;
	693	209.96	78.6750205	160	-40	1.038999	100	1	500	100	0	0	0	0	0	0	0	0	0	0	0;
	695	8.4	-0.841074714	10	-10	1.010516	100	1	100	5.6	0	0	0	0	0	0	0	0	0	0	0;
	698	26.72	4.52115043	20	-10	1.018527	100	1	100	17.81	0	0	0	0	0	0	0	0	0	0	0;
	709	626.68	231.593122	520	-120	1.051727	100	1	1300	400	0	0	0	0	0	0	0	0	0	0	0;
	715	23.9	3.54188707	30	-10	1.007844	100	1	100	15.93	0	0	0	0	0	0	0	0	0	0	0;
	717	23.12	5.5760899	10	0	1.027572	100	1	100	15.41	0	0	0	0	0	0	0	0	0	0	0;
	721	74.35	10.2165828	60	-20	0.992442	100	1	200	49.57	0	0	0	0	0	0	0	0	0	0	0;
	724	35.5	10.6223599	30	-10	1.045213	100	1	100	23.67	0	0	0	0	0	0	0	0	0	0	0;
	730	98.46	12.3441622	60	-20	1.01458	100	1	200	65.64	0	0	0	0	0	0	0	0	0	0	0;
	731	98.46	12.3441622	60	-20	1.01458	100	1	200	65.64	0	0	0	0	0	0	0	0	0	0	0;
	732	98.46	12.3441622	60	-20	1.01458	100	1	200	65.64	0	0	0	0	0	0	0	0	0	0	0;
	734	98.46	12.3441622	60	-20	1.01458	100	1	200	65.64	0	0	0	0	0	0	0	0	0	0	0;
	746	16	0.189230076	10	-10	0.994194	100	1	100	10.67	0	0	0	0	0	0	0	0	0	0	0;
	749	22.58	7.41695464	30	-10	1.009791	100	1	100	15.05	0	0	0	0	0	0	0	0	0	0	0;
	750	22.58	7.41695464	30	-10	1.009791	100	1	100	15.05	0	0	0	0	0	0	0	0	0	0	0;
	751	22.58	7.41695464	30	-10	1.009791	100	1	100	15.05	0	0	0	0	0	0	0	0	0	0	0;
	753	20.64	7.2310247	30	-10	1.018866	100	1	100	13.76	0	0	0	0	0	0	0	0	0	0	0;
	754	64.65	13.1000773	60	-20	1.009683	100	1	200	43.1	0	0	0	0	0	0	0	0	0	0	0;
	765	78.37	30.3072146	60	-20	1.032985	100	1	200	52.25	0	0	0	0	0	0	0	0	0	0	0;
...
];

%% branch data
%	fbus	tbus	r	x	b	rateA	rateB	rateC	ratio	angle	status	angmin	angmax	Pf	Qf	Pt	Qt
mpc.branch = [
	7519	4482	0.0006	0.00616	0	0	0	0	0	0	1	-360	360	-48.3043	20.7873	48.3196	-20.6305;
	7519	11823	0.0005	0.0074	0	0	0	0	0	0	1	-360	360	48.3043	-1.4352	-48.2936	1.5943;
	3073	4516	0.00107	0.00626	0	0	0	0	0	0	1	-360	360	-182.4029	-2.7030	182.7453	4.7066;
	3073	4706	0.000841	0.0055	0	0	0	0	0	0	1	-360	360	182.4029	4.0858	-182.1336	-2.3250;
	5157	1032	0.00143	0.01563	0	0	0	0	0	0	1	-360	360	861.5244	7.8073	-851.9807	96.5060;
	5157	6653	0.00146	0.01692	0	0	0	0	0	0	1	-360	360	-861.5244	39.6955	871.2882	73.4576;
...